tests/data/upgrade-models/sb10_p7uhs7_1247_trans_301/p7udt173/OpenDSS/PV_Loads.dss
new load.load_p7ulv13 conn=wye bus1=p7ulv13.1.2 kv=0.208 vminpu=0.8 vmaxpu=1.2 model=1 kw=8.542787973913319 kvar=2.442787329549381 phases=2
new load.load_p7ulv14 conn=wye bus1=p7ulv14.1.2 kv=0.208 vminpu=0.8 vmaxpu=1.2 model=1 kw=8.855631815772844 kvar=1.5776765657077287 phases=2
new load.load_p7ulv15 conn=wye bus1=p7ulv15.1.2 kv=0.208 vminpu=0.8 vmaxpu=1.2 model=1 kw=1.0753545785497238 kvar=0.5948316502983204 phases=2
new load.load_p7ulv16 conn=wye bus1=p7ulv16.1.2 kv=0.208 vminpu=0.8 vmaxpu=1.2 model=1 kw=5.730945108405793 kvar=0.972196824383623 phases=2
new load.load_p7ulv17 conn=wye bus1=p7ulv17.1.2 kv=0.208 vminpu=0.8 vmaxpu=1.2 model=1 kw=3.095730952629749 kvar=1.129368159246515 phases=2
new load.load_p7ulv18 conn=wye bus1=p7ulv18.1.2 kv=0.208 vminpu=0.8 vmaxpu=1.2 model=1 kw=2.8754936812679537 kvar=0.8140775658983653 phases=2
new load.load_p7ulv19 conn=wye bus1=p7ulv19.1.2 kv=0.208 vminpu=0.8 vmaxpu=1.2 model=1 kw=1.2422233832899283 kvar=0.7556272476686579 phases=2
new load.load_p7ulv20 conn=wye bus1=p7ulv20.1.2 kv=0.208 vminpu=0.8 vmaxpu=1.2 model=1 kw=2.1635980633348253 kvar=1.3212695566685728 phases=2
new load.load_p7ulv21 conn=wye bus1=p7ulv21.1.2 kv=0.208 vminpu=0.8 vmaxpu=1.2 model=1 kw=5.888435274898282 kvar=1.0531715233049384 phases=2
new load.load_p7ulv22 conn=wye bus1=p7ulv22.1.2 kv=0.208 vminpu=0.8 vmaxpu=1.2 model=1 kw=3.3636500317161433 kvar=1.098641624887626 phases=2
new load.load_p7ulv23 conn=wye bus1=p7ulv23.1.2 kv=0.208 vminpu=0.8 vmaxpu=1.2 model=1 kw=7.7801098082486835 kvar=1.510347899857005 phases=2
new load.load_p7ulv24 conn=wye bus1=p7ulv24.1.2 kv=0.208 vminpu=0.8 vmaxpu=1.2 model=1 kw=4.692834858598011 kvar=1.7605625007631336 phases=2
new load.load_p7ulv25 conn=wye bus1=p7ulv25.1.2 kv=0.208 vminpu=0.8 vmaxpu=1.2 model=1 kw=9.084226349067512 kvar=2.302514111019552 phases=2
new load.load_p7ulv26 conn=wye bus1=p7ulv26.1.2 kv=0.208 vminpu=0.8 vmaxpu=1.2 model=1 kw=12.141186585908601 kvar=3.480736295990472 phases=2
new load.load_p7ulv27 conn=wye bus1=p7ulv27.1.2 kv=0.208 vminpu=0.8 vmaxpu=1.2 model=1 kw=4.16460783092884 kvar=1.2773525400316486 phases=2
new load.load_p7ulv28 conn=wye bus1=p7ulv28.1.2 kv=0.208 vminpu=0.8 vmaxpu=1.2 model=1 kw=6.918553395046374 kvar=1.6850045836375984 phases=2
new load.load_p7ulv29 conn=wye bus1=p7ulv29.1.2 kv=0.208 vminpu=0.8 vmaxpu=1.2 model=1 kw=1.0459179665280087 kvar=0.6719761424132926 phases=2
new load.load_p7ulv30 conn=wye bus1=p7ulv30.1.2 kv=0.208 vminpu=0.8 vmaxpu=1.2 model=1 kw=8.050471858975994 kvar=3.934403947943945 phases=2
new load.load_p7ulv31 conn=wye bus1=p7ulv31.1.2 kv=0.208 vminpu=0.8 vmaxpu=1.2 model=1 kw=1.4106304189045609 kvar=0.4776150307272647 phases=2
new load.load_p7ulv32 conn=wye bus1=p7ulv32.1.2 kv=0.208 vminpu=0.8 vmaxpu=1.2 model=1 kw=21.467276122634523 kvar=4.0697673793716955 phases=2
new load.load_p7ulv33 conn=wye bus1=p7ulv33.1.2 kv=0.208 vminpu=0.8 vmaxpu=1.2 model=1 kw=5.720091237116503 kvar=0.15268366742357 phases=2
new load.load_p7ulv34 conn=wye bus1=p7ulv34.1.2 kv=0.208 vminpu=0.8 vmaxpu=1.2 model=1 kw=4.0600629963957084 kvar=1.8450273836899622 phases=2
new load.load_p7ulv35 conn=wye bus1=p7ulv35.1.2 kv=0.208 vminpu=0.8 vmaxpu=1.2 model=1 kw=11.357800109025254 kvar=0.5514092737351444 phases=2
new load.load_p7ulv36 conn=wye bus1=p7ulv36.1.2 kv=0.208 vminpu=0.8 vmaxpu=1.2 model=1 kw=7.948298886923139 kvar=1.6558434886976543 phases=2
new load.load_p7ulv37 conn=wye bus1=p7ulv37.1.2 kv=0.208 vminpu=0.8 vmaxpu=1.2 model=1 kw=2.2855636191584665 kvar=1.0067176089116643 phases=2
new load.load_p7ulv38 conn=wye bus1=p7ulv38.1.2 kv=0.208 vminpu=0.8 vmaxpu=1.2 model=1 kw=2.519211155682551 kvar=0.8921047817191214 phases=2
new load.load_p7ulv39 conn=wye bus1=p7ulv39.1.2 kv=0.208 vminpu=0.8 vmaxpu=1.2 model=1 kw=1.8359555924892448 kvar=0.6962800798555026 phases=2
new load.load_p7ulv40 conn=wye bus1=p7ulv40.1.2 kv=0.208 vminpu=0.8 vmaxpu=1.2 model=1 kw=5.427510762657684 kvar=0.16665213051370772 phases=2
new load.load_p7ulv41 conn=wye bus1=p7ulv41.1.2 kv=0.208 vminpu=0.8 vmaxpu=1.2 model=1 kw=3.8015630284656847 kvar=1.816880642011898 phases=2
new load.load_p7ulv42 conn=wye bus1=p7ulv42.1.2 kv=0.208 vminpu=0.8 vmaxpu=1.2 model=1 kw=2.3017692420380853 kvar=1.2698499075477068 phases=2
new load.load_p7ulv43 conn=wye bus1=p7ulv43.1.2 kv=0.208 vminpu=0.8 vmaxpu=1.2 model=1 kw=20.80707852778051 kvar=5.696633745772469 phases=2
new load.load_p7ulv44 conn=wye bus1=p7ulv44.1.2 kv=0.208 vminpu=0.8 vmaxpu=1.2 model=1 kw=14.211358499125474 kvar=3.97018569682448 phases=2
new load.load_p7ulv45 conn=wye bus1=p7ulv45.1.2 kv=0.208 vminpu=0.8 vmaxpu=1.2 model=1 kw=1.5076812687078205 kvar=0.8435386901156321 phases=2
new load.load_p7ulv46 conn=wye bus1=p7ulv46.1.2 kv=0.208 vminpu=0.8 vmaxpu=1.2 model=1 kw=3.015275706319105 kvar=1.2986132204319225 phases=2
new load.load_p7ulv47 conn=wye bus1=p7ulv47.1.2 kv=0.208 vminpu=0.8 vmaxpu=1.2 model=1 kw=2.54588299532789 kvar=1.1320820790128934 phases=2
new load.load_p7ulv48 conn=wye bus1=p7ulv48.1.2 kv=0.208 vminpu=0.8 vmaxpu=1.2 model=1 kw=2.003856628420758 kvar=0.914580355102151 phases=2
new load.load_p7ulv49 conn=wye bus1=p7ulv49.1.2 kv=0.208 vminpu=0.8 vmaxpu=1.2 model=1 kw=8.37227538524353 kvar=1.965172905159391 phases=2
new load.load_p7ulv50 conn=wye bus1=p7ulv50.1.2 kv=0.208 vminpu=0.8 vmaxpu=1.2 model=1 kw=3.838231482149002 kvar=0.5701817976484987 phases=2
new load.load_p7ulv51 conn=wye bus1=p7ulv51.1.2 kv=0.208 vminpu=0.8 vmaxpu=1.2 model=1 kw=0.3613463611774056 kvar=0.1994587570666719 phases=2
new load.load_p7ulv52 conn=wye bus1=p7ulv52.1.2 kv=0.208 vminpu=0.8 vmaxpu=1.2 model=1 kw=8.960483234612239 kvar=0.3244909008388851 phases=2
new load.load_p7ulv53 conn=wye bus1=p7ulv53.1.2 kv=0.208 vminpu=0.8 vmaxpu=1.2 model=1 kw=11.051840351643456 kvar=2.6111643906038102 phases=2
new load.load_p7ulv54 conn=wye bus1=p7ulv54.1.2 kv=0.208 vminpu=0.8 vmaxpu=1.2 model=1 kw=5.427510762657684 kvar=0.16665213051370772 phases=2
new load.load_p7ulv55 conn=wye bus1=p7ulv55.1.2 kv=0.208 vminpu=0.8 vmaxpu=1.2 model=1 kw=2.483603784661002 kvar=0.9091937758845783 phases=2
new load.load_p7ulv56 conn=wye bus1=p7ulv56.1.2 kv=0.208 vminpu=0.8 vmaxpu=1.2 model=1 kw=9.898122617335202 kvar=1.8600037561128047 phases=2
new load.load_p7ulv57 conn=wye bus1=p7ulv57.1.2 kv=0.208 vminpu=0.8 vmaxpu=1.2 model=1 kw=3.7336583818210225 kvar=1.5145439464014088 phases=2
new load.load_p7ulv58 conn=wye bus1=p7ulv58.1.2 kv=0.208 vminpu=0.8 vmaxpu=1.2 model=1 kw=3.661837875691021 kvar=1.2139489294037344 phases=2
new load.load_p7ulv59 conn=wye bus1=p7ulv59.1.2 kv=0.208 vminpu=0.8 vmaxpu=1.2 model=1 kw=4.932579737025551 kvar=1.6803951704273423 phases=2
new load.load_p7ulv60 conn=wye bus1=p7ulv60.1.2 kv=0.208 vminpu=0.8 vmaxpu=1.2 model=1 kw=6.7020144788464435 kvar=2.0666621120179185 phases=2
new load.load_p7ulv61 conn=wye bus1=p7ulv61.1.2 kv=0.208 vminpu=0.8 vmaxpu=1.2 model=1 kw=2.5124200102441048 kvar=0.13067924351295937 phases=2
new load.load_p7ulv62 conn=wye bus1=p7ulv62.1.2 kv=0.208 vminpu=0.8 vmaxpu=1.2 model=1 kw=14.232742060476278 kvar=3.3951285629705015 phases=2
new load.load_p7ulv63 conn=wye bus1=p7ulv63.1.2 kv=0.208 vminpu=0.8 vmaxpu=1.2 model=1 kw=8.808145591706765 kvar=2.2230628377964923 phases=2
new load.load_p7ulv64 conn=wye bus1=p7ulv64.1.2 kv=0.208 vminpu=0.8 vmaxpu=1.2 model=1 kw=3.9801038589937847 kvar=0.6224608374270042 phases=2
new load.load_p7ulv65 conn=wye bus1=p7ulv65.1.2 kv=0.208 vminpu=0.8 vmaxpu=1.2 model=1 kw=2.427731902647464 kvar=0.8150884203033032 phases=2
new load.load_p7ulv66 conn=wye bus1=p7ulv66.1.2 kv=0.208 vminpu=0.8 vmaxpu=1.2 model=1 kw=4.361068332783072 kvar=1.4818006641274668 phases=2
new load.load_p7ulv67 conn=wye bus1=p7ulv67.1.2 kv=0.208 vminpu=0.8 vmaxpu=1.2 model=1 kw=4.139334339463864 kvar=1.3272745977352134 phases=2
new load.load_p7ulv68 conn=wye bus1=p7ulv68.1.2 kv=0.208 vminpu=0.8 vmaxpu=1.2 model=1 kw=10.254877290018461 kvar=1.6352608082805633 phases=2
new load.load_p7ulv69 conn=wye bus1=p7ulv69.1.2 kv=0.208 vminpu=0.8 vmaxpu=1.2 model=1 kw=5.730945108405793 kvar=0.972196824383623 phases=2
new load.load_p7ulv70 conn=wye bus1=p7ulv70.1.2 kv=0.208 vminpu=0.8 vmaxpu=1.2 model=1 kw=8.30296079603255 kvar=0.2279973198546155 phases=2
new load.load_p7ulv71 conn=wye bus1=p7ulv71.1.2 kv=0.208 vminpu=0.8 vmaxpu=1.2 model=1 kw=3.015731756719448 kvar=1.1954770941842854 phases=2
new load.load_p7ulv72 conn=wye bus1=p7ulv72.1.2 kv=0.208 vminpu=0.8 vmaxpu=1.2 model=1 kw=5.752086088137126 kvar=1.6094638081375428 phases=2
new load.load_p7ulv73 conn=wye bus1=p7ulv73.1.2 kv=0.208 vminpu=0.8 vmaxpu=1.2 model=1 kw=5.818327477555237 kvar=1.8438917877508865 phases=2
new load.load_p7ulv74 conn=wye bus1=p7ulv74.1.2 kv=0.208 vminpu=0.8 vmaxpu=1.2 model=1 kw=5.745582170833786 kvar=3.522985912634994 phases=2
new load.load_p7ulv75 conn=wye bus1=p7ulv75.1.2 kv=0.208 vminpu=0.8 vmaxpu=1.2 model=1 kw=1.0696403399292247 kvar=0.42483648247297456 phases=2
new load.load_p7ulv427 conn=wye bus1=p7ulv427.1.2 kv=0.208 vminpu=0.8 vmaxpu=1.2 model=1 kw=10.619723440985448 kvar=2.35729884594422 phases=2
new load.load_p7ulv428 conn=wye bus1=p7ulv428.1.2 kv=0.208 vminpu=0.8 vmaxpu=1.2 model=1 kw=8.178575340053008 kvar=0.4543073747495605 phases=2
new load.load_p7ulv429 conn=wye bus1=p7ulv429.1.2 kv=0.208 vminpu=0.8 vmaxpu=1.2 model=1 kw=4.549992167518097 kvar=0.4232060216167295 phases=2
new load.load_p7ulv430 conn=wye bus1=p7ulv430.1.2 kv=0.208 vminpu=0.8 vmaxpu=1.2 model=1 kw=12.633765736744108 kvar=2.400548645099138 phases=2
new load.load_p7ulv431 conn=wye bus1=p7ulv431.1.2 kv=0.208 vminpu=0.8 vmaxpu=1.2 model=1 kw=3.084920356848713 kvar=0.6291555122761681 phases=2
new load.load_p7ulv432 conn=wye bus1=p7ulv432.1.2 kv=0.208 vminpu=0.8 vmaxpu=1.2 model=1 kw=1.54541106447827 kvar=0.6713657349582733 phases=2
new load.load_p7ulv433 conn=wye bus1=p7ulv433.1.2 kv=0.208 vminpu=0.8 vmaxpu=1.2 model=1 kw=1.0696403399292247 kvar=0.42483648247297456 phases=2
new load.load_p7ulv434 conn=wye bus1=p7ulv434.1.2 kv=0.208 vminpu=0.8 vmaxpu=1.2 model=1 kw=3.269310724269714 kvar=1.1195896305222508 phases=2
new load.load_p7ulv435 conn=wye bus1=p7ulv435.1.2 kv=0.208 vminpu=0.8 vmaxpu=1.2 model=1 kw=3.2963525187459854 kvar=1.619194824924476 phases=2
new load.load_p7ulv436 conn=wye bus1=p7ulv436.1.2 kv=0.208 vminpu=0.8 vmaxpu=1.2 model=1 kw=5.946814759585763 kvar=0.8872527222593608 phases=2
new load.load_p7ulv437 conn=wye bus1=p7ulv437.1.2 kv=0.208 vminpu=0.8 vmaxpu=1.2 model=1 kw=15.706582324238694 kvar=3.6513106109218194 phases=2
new load.load_p7ulv438 conn=wye bus1=p7ulv438.1.2 kv=0.208 vminpu=0.8 vmaxpu=1.2 model=1 kw=3.445678792781085 kvar=1.6404185346793925 phases=2
new load.load_p7ulv439 conn=wye bus1=p7ulv439.1.2 kv=0.208 vminpu=0.8 vmaxpu=1.2 model=1 kw=7.484746655035107 kvar=1.7501294195649524 phases=2
new load.load_p7ulv440 conn=wye bus1=p7ulv440.1.2 kv=0.208 vminpu=0.8 vmaxpu=1.2 model=1 kw=6.722512033143909 kvar=1.4397052849325633 phases=2
new load.load_p7ulv441 conn=wye bus1=p7ulv441.1.2 kv=0.208 vminpu=0.8 vmaxpu=1.2 model=1 kw=3.095730952629749 kvar=1.129368159246515 phases=2
new load.load_p7ulv442 conn=wye bus1=p7ulv442.1.2 kv=0.208 vminpu=0.8 vmaxpu=1.2 model=1 kw=2.2922685186018645 kvar=1.0331024324398523 phases=2
new load.load_p7ulv443 conn=wye bus1=p7ulv443.1.2 kv=0.208 vminpu=0.8 vmaxpu=1.2 model=1 kw=5.51262931937629 kvar=2.1171653249559235 phases=2
new load.load_p7ulv444 conn=wye bus1=p7ulv444.1.2 kv=0.208 vminpu=0.8 vmaxpu=1.2 model=1 kw=10.261960443748043 kvar=2.4479014303942557 phases=2
new load.load_p7ulv445 conn=wye bus1=p7ulv445.1.2 kv=0.208 vminpu=0.8 vmaxpu=1.2 model=1 kw=2.290995490855593 kvar=0.6876935577542139 phases=2
new load.load_p7ulv446 conn=wye bus1=p7ulv446.1.2 kv=0.208 vminpu=0.8 vmaxpu=1.2 model=1 kw=9.071629156431454 kvar=2.293631296524321 phases=2
new load.load_p7ulv447 conn=wye bus1=p7ulv447.1.2 kv=0.208 vminpu=0.8 vmaxpu=1.2 model=1 kw=0.7079157428191405 kvar=0.2969130822979559 phases=2
new load.load_p7ulv450 conn=wye bus1=p7ulv450.1.2 kv=0.208 vminpu=0.8 vmaxpu=1.2 model=1 kw=2.6091826779870333 kvar=0.890211121783563 phases=2
new load.load_p7ulv451 conn=wye bus1=p7ulv451.1.2 kv=0.208 vminpu=0.8 vmaxpu=1.2 model=1 kw=3.447260977256236 kvar=0.7927747322869754 phases=2
new load.load_p7ulv452 conn=wye bus1=p7ulv452.1.2 kv=0.208 vminpu=0.8 vmaxpu=1.2 model=1 kw=8.30296079603255 kvar=0.2279973198546155 phases=2
new load.load_p7ulv453 conn=wye bus1=p7ulv453.1.2 kv=0.208 vminpu=0.8 vmaxpu=1.2 model=1 kw=3.108651793054302 kvar=1.1657754024862381 phases=2
new load.load_p7ulv454 conn=wye bus1=p7ulv454.1.2 kv=0.208 vminpu=0.8 vmaxpu=1.2 model=1 kw=2.2558924198737214 kvar=0.5317845804629717 phases=2
new load.load_p7ulv455 conn=wye bus1=p7ulv455.1.2 kv=0.208 vminpu=0.8 vmaxpu=1.2 model=1 kw=0.6589614002973192 kvar=0.34027794459490013 phases=2
new load.load_p7ulv456 conn=wye bus1=p7ulv456.1.2 kv=0.208 vminpu=0.8 vmaxpu=1.2 model=1 kw=1.0459179665280087 kvar=0.6719761424132926 phases=2
new load.load_p7ulv457 conn=wye bus1=p7ulv457.1.2 kv=0.208 vminpu=0.8 vmaxpu=1.2 model=1 kw=1.0459179665280087 kvar=0.6719761424132926 phases=2
new load.load_p7ulv458 conn=wye bus1=p7ulv458.1.2 kv=0.208 vminpu=0.8 vmaxpu=1.2 model=1 kw=4.4285151191011165 kvar=1.7022522976936874 phases=2
new load.load_p7ulv460 conn=wye bus1=p7ulv460.1.2 kv=0.208 vminpu=0.8 vmaxpu=1.2 model=1 kw=7.569543308679461 kvar=1.7134479475055922 phases=2
new load.load_p7ulv461 conn=wye bus1=p7ulv461.1.2 kv=0.208 vminpu=0.8 vmaxpu=1.2 model=1 kw=4.596747025743866 kvar=0.1756045203650689 phases=2
new load.load_p7ulv462 conn=wye bus1=p7ulv462.1.2 kv=0.208 vminpu=0.8 vmaxpu=1.2 model=1 kw=8.964152193875735 kvar=1.5238994008321736 phases=2
new load.load_p7ulv463 conn=wye bus1=p7ulv463.1.2 kv=0.208 vminpu=0.8 vmaxpu=1.2 model=1 kw=5.1964309161794935 kvar=0.8908121380782748 phases=2
new load.load_p7ulv464 conn=wye bus1=p7ulv464.1.2 kv=0.208 vminpu=0.8 vmaxpu=1.2 model=1 kw=5.395201512938753 kvar=2.0024447284000493 phases=2
new load.load_p7ulv467 conn=wye bus1=p7ulv467.1.2 kv=0.208 vminpu=0.8 vmaxpu=1.2 model=1 kw=10.482404226240957 kvar=0.4625498421841941 phases=2
new load.load_p7ulv469 conn=wye bus1=p7ulv469.1.2 kv=0.208 vminpu=0.8 vmaxpu=1.2 model=1 kw=9.084226349067512 kvar=2.302514111019552 phases=2
new load.load_p7ulv470 conn=wye bus1=p7ulv470.1.2 kv=0.208 vminpu=0.8 vmaxpu=1.2 model=1 kw=3.6066199991557184 kvar=1.183206022448997 phases=2
new load.load_p7ulv471 conn=wye bus1=p7ulv471.1.2 kv=0.208 vminpu=0.8 vmaxpu=1.2 model=1 kw=9.456851061491662 kvar=2.7990091472225327 phases=2
new load.load_p7ulv472 conn=wye bus1=p7ulv472.1.2 kv=0.208 vminpu=0.8 vmaxpu=1.2 model=1 kw=3.661837875691021 kvar=1.2139489294037344 phases=2
new load.load_p7ulv474 conn=wye bus1=p7ulv474.1.2 kv=0.208 vminpu=0.8 vmaxpu=1.2 model=1 kw=3.0639979052076822 kvar=1.8104876097834883 phases=2
new load.load_p7ulv475 conn=wye bus1=p7ulv475.1.2 kv=0.208 vminpu=0.8 vmaxpu=1.2 model=1 kw=2.2422583723571687 kvar=0.9675129603019429 phases=2
new load.load_p7ulv476 conn=wye bus1=p7ulv476.1.2 kv=0.208 vminpu=0.8 vmaxpu=1.2 model=1 kw=8.167903491667536 kvar=1.9707964564600995 phases=2
new load.load_p7ulv477 conn=wye bus1=p7ulv477.1.2 kv=0.208 vminpu=0.8 vmaxpu=1.2 model=1 kw=7.983482757039484 kvar=0.45986337639116476 phases=2
new load.load_p7ulv478 conn=wye bus1=p7ulv478.1.2 kv=0.208 vminpu=0.8 vmaxpu=1.2 model=1 kw=12.06186816470309 kvar=3.0020480165131787 phases=2
new load.load_p7ulv563 conn=wye bus1=p7ulv563.1.2 kv=0.208 vminpu=0.8 vmaxpu=1.2 model=1 kw=5.459316181621637 kvar=1.3034096322864748 phases=2
new load.load_p7ulv565 conn=wye bus1=p7ulv565.1.2 kv=0.208 vminpu=0.8 vmaxpu=1.2 model=1 kw=8.191187670446032 kvar=1.5471964677976864 phases=2
new load.load_p7ulv568 conn=wye bus1=p7ulv568.1.2 kv=0.208 vminpu=0.8 vmaxpu=1.2 model=1 kw=0.8928740472153442 kvar=0.3319879358602993 phases=2
new load.load_p7ulv571 conn=wye bus1=p7ulv571.1.2 kv=0.208 vminpu=0.8 vmaxpu=1.2 model=1 kw=2.51623804251709 kvar=1.0928515003017882 phases=2
new load.load_p7ulv572 conn=wye bus1=p7ulv572.1.2 kv=0.208 vminpu=0.8 vmaxpu=1.2 model=1 kw=14.136049041985016 kvar=2.430639143851976 phases=2
new load.load_p7ulv573 conn=wye bus1=p7ulv573.1.2 kv=0.208 vminpu=0.8 vmaxpu=1.2 model=1 kw=3.414709175147885 kvar=1.2087818178501895 phases=2
new load.load_p7ulv1370 conn=wye bus1=p7ulv1370.1.2 kv=0.208 vminpu=0.8 vmaxpu=1.2 model=1 kw=8.855631815772844 kvar=1.5776765657077287 phases=2
new load.load_p7ulv1371 conn=wye bus1=p7ulv1371.1.2 kv=0.208 vminpu=0.8 vmaxpu=1.2 model=1 kw=6.07680384546217 kvar=0.9060527374966116 phases=2
new load.load_p7ulv1372 conn=wye bus1=p7ulv1372.1.2 kv=0.208 vminpu=0.8 vmaxpu=1.2 model=1 kw=0.3613463611774056 kvar=0.1994587570666719 phases=2
new load.load_p7ulv1373 conn=wye bus1=p7ulv1373.1.2 kv=0.208 vminpu=0.8 vmaxpu=1.2 model=1 kw=0.6589614002973192 kvar=0.34027794459490013 phases=2
new load.load_p7ulv1374 conn=wye bus1=p7ulv1374.1.2 kv=0.208 vminpu=0.8 vmaxpu=1.2 model=1 kw=10.482404226240957 kvar=0.4625498421841941 phases=2
new load.load_p7ulv1375 conn=wye bus1=p7ulv1375.1.2 kv=0.208 vminpu=0.8 vmaxpu=1.2 model=1 kw=3.985682811496477 kvar=1.5078838350383141 phases=2
new load.load_p7ulv1376 conn=wye bus1=p7ulv1376.1.2 kv=0.208 vminpu=0.8 vmaxpu=1.2 model=1 kw=7.544924344663552 kvar=2.1510774421686794 phases=2
new load.load_p7ulv1377 conn=wye bus1=p7ulv1377.1.2 kv=0.208 vminpu=0.8 vmaxpu=1.2 model=1 kw=1.5404793568471349 kvar=0.8383251500630869 phases=2
new load.load_p7ulv1378 conn=wye bus1=p7ulv1378.1.2 kv=0.208 vminpu=0.8 vmaxpu=1.2 model=1 kw=2.3156559036887545 kvar=0.8401956573334964 phases=2
new load.load_p7ulv1379 conn=wye bus1=p7ulv1379.1.2 kv=0.208 vminpu=0.8 vmaxpu=1.2 model=1 kw=5.812946682381667 kvar=0.8685917013110963 phases=2
new load.load_p7ulv1380 conn=wye bus1=p7ulv1380.1.2 kv=0.208 vminpu=0.8 vmaxpu=1.2 model=1 kw=1.54541106447827 kvar=0.6713657349582733 phases=2
new load.load_p7ulv1381 conn=wye bus1=p7ulv1381.1.2 kv=0.208 vminpu=0.8 vmaxpu=1.2 model=1 kw=3.006904587776538 kvar=1.1955576789948261 phases=2
new load.load_p7ulv1383 conn=wye bus1=p7ulv1383.1.2 kv=0.208 vminpu=0.8 vmaxpu=1.2 model=1 kw=1.9036666541970855 kvar=0.6680660386405408 phases=2
new load.load_p7ulv1384 conn=wye bus1=p7ulv1384.1.2 kv=0.208 vminpu=0.8 vmaxpu=1.2 model=1 kw=6.051155824753024 kvar=1.2959815382434907 phases=2
new load.load_p7ulv1386 conn=wye bus1=p7ulv1386.1.2 kv=0.208 vminpu=0.8 vmaxpu=1.2 model=1 kw=4.924588977500645 kvar=0.20967301660474713 phases=2
new load.load_p7ulv1387 conn=wye bus1=p7ulv1387.1.2 kv=0.208 vminpu=0.8 vmaxpu=1.2 model=1 kw=11.738735138019633 kvar=2.5798610265698105 phases=2
new load.load_p7ulv1388 conn=wye bus1=p7ulv1388.1.2 kv=0.208 vminpu=0.8 vmaxpu=1.2 model=1 kw=1.788923250754262 kvar=0.6702454593730007 phases=2
new load.load_p7ulv1390 conn=wye bus1=p7ulv1390.1.2 kv=0.208 vminpu=0.8 vmaxpu=1.2 model=1 kw=6.397682989532603 kvar=1.1063122686789568 phases=2
new load.load_p7ulv1391 conn=wye bus1=p7ulv1391.1.2 kv=0.208 vminpu=0.8 vmaxpu=1.2 model=1 kw=1.6749585702350231 kvar=0.6407817353475183 phases=2
new load.load_p7ulv1392 conn=wye bus1=p7ulv1392.1.2 kv=0.208 vminpu=0.8 vmaxpu=1.2 model=1 kw=1.0459179665280087 kvar=0.6719761424132926 phases=2
new load.load_p7ulv1393 conn=wye bus1=p7ulv1393.1.2 kv=0.208 vminpu=0.8 vmaxpu=1.2 model=1 kw=3.44618367349395 kvar=0.03057014674186479 phases=2
new load.load_p7ulv1394 conn=wye bus1=p7ulv1394.1.2 kv=0.208 vminpu=0.8 vmaxpu=1.2 model=1 kw=0.7771549564482326 kvar=0.25249782831025164 phases=2
new load.load_p7ulv1395 conn=wye bus1=p7ulv1395.1.2 kv=0.208 vminpu=0.8 vmaxpu=1.2 model=1 kw=2.134167894210675 kvar=0.9071429289170876 phases=2
new load.load_p7ulv1396 conn=wye bus1=p7ulv1396.1.2 kv=0.208 vminpu=0.8 vmaxpu=1.2 model=1 kw=1.3395991950971817 kvar=0.8331481798644669 phases=2
new load.load_p7ulv1397 conn=wye bus1=p7ulv1397.1.2 kv=0.208 vminpu=0.8 vmaxpu=1.2 model=1 kw=1.9036666541970855 kvar=0.6680660386405408 phases=2
new load.load_p7ulv1399 conn=wye bus1=p7ulv1399.1.2 kv=0.208 vminpu=0.8 vmaxpu=1.2 model=1 kw=3.588011067702168 kvar=1.3710198818843773 phases=2
new load.load_p7ulv1400 conn=wye bus1=p7ulv1400.1.2 kv=0.208 vminpu=0.8 vmaxpu=1.2 model=1 kw=4.190669579077667 kvar=1.6769651830860184 phases=2
new load.load_p7ulv1401 conn=wye bus1=p7ulv1401.1.2 kv=0.208 vminpu=0.8 vmaxpu=1.2 model=1 kw=9.68306470887542 kvar=2.894452819411858 phases=2
new load.load_p7ulv1402 conn=wye bus1=p7ulv1402.1.2 kv=0.208 vminpu=0.8 vmaxpu=1.2 model=1 kw=3.1385375280850636 kvar=1.118019440239588 phases=2
new load.load_p7ulv1403 conn=wye bus1=p7ulv1403.1.2 kv=0.208 vminpu=0.8 vmaxpu=1.2 model=1 kw=9.084226349067512 kvar=2.302514111019552 phases=2
new load.load_p7ulv1415 conn=wye bus1=p7ulv1415.1.2 kv=0.208 vminpu=0.8 vmaxpu=1.2 model=1 kw=2.0577138900091536 kvar=0.5216297151676056 phases=2
new load.load_p7ulv1416 conn=wye bus1=p7ulv1416.1.2 kv=0.208 vminpu=0.8 vmaxpu=1.2 model=1 kw=5.14542740016782 kvar=2.173978777868376 phases=2
new load.load_p7ulv1417 conn=wye bus1=p7ulv1417.1.2 kv=0.208 vminpu=0.8 vmaxpu=1.2 model=1 kw=2.488020244669249 kvar=0.21297406120020693 phases=2
new load.load_p7ulv1418 conn=wye bus1=p7ulv1418.1.2 kv=0.208 vminpu=0.8 vmaxpu=1.2 model=1 kw=2.2855636191584665 kvar=1.0067176089116643 phases=2
new load.load_p7ulv1419 conn=wye bus1=p7ulv1419.1.2 kv=0.208 vminpu=0.8 vmaxpu=1.2 model=1 kw=1.0459179665280087 kvar=0.6719761424132926 phases=2
new load.load_p7ulv1420 conn=wye bus1=p7ulv1420.1.2 kv=0.208 vminpu=0.8 vmaxpu=1.2 model=1 kw=2.6538516545028585 kvar=1.0852442505448752 phases=2
new load.load_p7ulv1421 conn=wye bus1=p7ulv1421.1.2 kv=0.208 vminpu=0.8 vmaxpu=1.2 model=1 kw=4.998299015288007 kvar=0.6720657472849626 phases=2
new load.load_p7ulv1422 conn=wye bus1=p7ulv1422.1.2 kv=0.208 vminpu=0.8 vmaxpu=1.2 model=1 kw=3.022725586652412 kvar=1.2660874263098114 phases=2
new load.load_p7ulv1423 conn=wye bus1=p7ulv1423.1.2 kv=0.208 vminpu=0.8 vmaxpu=1.2 model=1 kw=16.79738931729589 kvar=1.4883663911141953 phases=2
new load.load_p7ulv1424 conn=wye bus1=p7ulv1424.1.2 kv=0.208 vminpu=0.8 vmaxpu=1.2 model=1 kw=8.176012562445761 kvar=0.9102211590969782 phases=2
new load.load_p7ulv1425 conn=wye bus1=p7ulv1425.1.2 kv=0.208 vminpu=0.8 vmaxpu=1.2 model=1 kw=5.291159019973437 kvar=0.2419414874185665 phases=2
new load.load_p7ulv1426 conn=wye bus1=p7ulv1426.1.2 kv=0.208 vminpu=0.8 vmaxpu=1.2 model=1 kw=2.54588299532789 kvar=1.1320820790128934 phases=2
new load.load_p7ulv1427 conn=wye bus1=p7ulv1427.1.2 kv=0.208 vminpu=0.8 vmaxpu=1.2 model=1 kw=7.983482757039484 kvar=0.45986337639116476 phases=2
new load.load_p7ulv1428 conn=wye bus1=p7ulv1428.1.2 kv=0.208 vminpu=0.8 vmaxpu=1.2 model=1 kw=4.322644924373094 kvar=1.2540188283706402 phases=2
new load.load_p7ulv1429 conn=wye bus1=p7ulv1429.1.2 kv=0.208 vminpu=0.8 vmaxpu=1.2 model=1 kw=2.54588299532789 kvar=1.1320820790128934 phases=2
new load.load_p7ulv1430 conn=wye bus1=p7ulv1430.1.2 kv=0.208 vminpu=0.8 vmaxpu=1.2 model=1 kw=3.1803082076883404 kvar=0.14915269448385696 phases=2
new load.load_p7ulv1431 conn=wye bus1=p7ulv1431.1.2 kv=0.208 vminpu=0.8 vmaxpu=1.2 model=1 kw=2.990027507459333 kvar=0.6301325140170871 phases=2
new load.load_p7ulv1432 conn=wye bus1=p7ulv1432.1.2 kv=0.208 vminpu=0.8 vmaxpu=1.2 model=1 kw=3.1803082076883404 kvar=0.14915269448385696 phases=2
new load.load_p7ulv1433 conn=wye bus1=p7ulv1433.1.2 kv=0.208 vminpu=0.8 vmaxpu=1.2 model=1 kw=3.748921168259389 kvar=1.1784993401537216 phases=2
new load.load_p7ulv1434 conn=wye bus1=p7ulv1434.1.2 kv=0.208 vminpu=0.8 vmaxpu=1.2 model=1 kw=2.39120205219121 kvar=0.8758927520248674 phases=2
new load.load_p7ulv1435 conn=wye bus1=p7ulv1435.1.2 kv=0.208 vminpu=0.8 vmaxpu=1.2 model=1 kw=2.427731902647464 kvar=0.8150884203033032 phases=2
new load.load_p7ulv1436 conn=wye bus1=p7ulv1436.1.2 kv=0.208 vminpu=0.8 vmaxpu=1.2 model=1 kw=0.7839932898074892 kvar=0.5105379556791113 phases=2
new load.load_p7ulv1437 conn=wye bus1=p7ulv1437.1.2 kv=0.208 vminpu=0.8 vmaxpu=1.2 model=1 kw=1.4146596480791824 kvar=0.5449456604423569 phases=2
new load.load_p7ulv1438 conn=wye bus1=p7ulv1438.1.2 kv=0.208 vminpu=0.8 vmaxpu=1.2 model=1 kw=3.588011067702168 kvar=1.3710198818843773 phases=2
new load.load_p7ulv1439 conn=wye bus1=p7ulv1439.1.2 kv=0.208 vminpu=0.8 vmaxpu=1.2 model=1 kw=1.8707485770033963 kvar=0.7260012109360746 phases=2
new load.load_p7ulv1440 conn=wye bus1=p7ulv1440.1.2 kv=0.208 vminpu=0.8 vmaxpu=1.2 model=1 kw=1.6577701076960591 kvar=0.6339043459922095 phases=2
new load.load_p7ulv1441 conn=wye bus1=p7ulv1441.1.2 kv=0.208 vminpu=0.8 vmaxpu=1.2 model=1 kw=1.6577701076960591 kvar=0.6339043459922095 phases=2
new load.load_p7ulv1442 conn=wye bus1=p7ulv1442.1.2 kv=0.208 vminpu=0.8 vmaxpu=1.2 model=1 kw=2.862445291696568 kvar=1.0458595590942243 phases=2
new load.load_p7ulv1443 conn=wye bus1=p7ulv1443.1.2 kv=0.208 vminpu=0.8 vmaxpu=1.2 model=1 kw=1.54541106447827 kvar=0.6713657349582733 phases=2
new load.load_p7ulv1444 conn=wye bus1=p7ulv1444.1.2 kv=0.208 vminpu=0.8 vmaxpu=1.2 model=1 kw=23.841364816169357 kvar=5.269587904495786 phases=2
new load.load_p7ulv1445 conn=wye bus1=p7ulv1445.1.2 kv=0.208 vminpu=0.8 vmaxpu=1.2 model=1 kw=4.198541131457806 kvar=1.2071367671498674 phases=2
new load.load_p7ulv1446 conn=wye bus1=p7ulv1446.1.2 kv=0.208 vminpu=0.8 vmaxpu=1.2 model=1 kw=2.0261916505504356 kvar=0.7806851888413636 phases=2
new load.load_p7ulv3412 conn=wye bus1=p7ulv3412.1.2 kv=0.208 vminpu=0.8 vmaxpu=1.2 model=1 kw=4.513819762094608 kvar=1.579329425764792 phases=2
new load.load_p7ulv3431 conn=wye bus1=p7ulv3431.1.2 kv=0.208 vminpu=0.8 vmaxpu=1.2 model=1 kw=2.003856628420758 kvar=0.914580355102151 phases=2
new load.load_p7ulv3607 conn=wye bus1=p7ulv3607.1.2 kv=0.208 vminpu=0.8 vmaxpu=1.2 model=1 kw=7.697283093039208 kvar=1.1470199645787407 phases=2
new load.load_p7ulv3612 conn=wye bus1=p7ulv3612.1.2 kv=0.208 vminpu=0.8 vmaxpu=1.2 model=1 kw=2.896615768372329 kvar=1.2826404165987506 phases=2
new load.load_p7ulv3615 conn=wye bus1=p7ulv3615.1.2 kv=0.208 vminpu=0.8 vmaxpu=1.2 model=1 kw=12.633765736744108 kvar=2.400548645099138 phases=2
new load.load_p7ulv3616 conn=wye bus1=p7ulv3616.1.2 kv=0.208 vminpu=0.8 vmaxpu=1.2 model=1 kw=7.216070750179671 kvar=1.5798093586059128 phases=2
new load.load_p7ulv3618 conn=wye bus1=p7ulv3618.1.2 kv=0.208 vminpu=0.8 vmaxpu=1.2 model=1 kw=3.833181497717869 kvar=1.376528754479414 phases=2
new load.load_p7ulv3623 conn=wye bus1=p7ulv3623.1.2 kv=0.208 vminpu=0.8 vmaxpu=1.2 model=1 kw=5.592346297409249 kvar=2.0649053282194756 phases=2
new load.load_p7ulv3627 conn=wye bus1=p7ulv3627.1.2 kv=0.208 vminpu=0.8 vmaxpu=1.2 model=1 kw=4.453281348112751 kvar=1.3888635291066684 phases=2
new load.load_p7ulv3632 conn=wye bus1=p7ulv3632.1.2 kv=0.208 vminpu=0.8 vmaxpu=1.2 model=1 kw=20.65973593912246 kvar=1.4450005644439121 phases=2
new load.load_p7ulv3646 conn=wye bus1=p7ulv3646.1.2 kv=0.208 vminpu=0.8 vmaxpu=1.2 model=1 kw=4.344180140111084 kvar=0.9896848029849606 phases=2
new load.load_p7ulv3649 conn=wye bus1=p7ulv3649.1.2 kv=0.208 vminpu=0.8 vmaxpu=1.2 model=1 kw=2.523121057339419 kvar=0.9632937330412327 phases=2
new load.load_p7ulv3651 conn=wye bus1=p7ulv3651.1.2 kv=0.208 vminpu=0.8 vmaxpu=1.2 model=1 kw=5.902924341627888 kvar=2.6674403395829223 phases=2
new load.load_p7ulv3652 conn=wye bus1=p7ulv3652.1.2 kv=0.208 vminpu=0.8 vmaxpu=1.2 model=1 kw=5.720091237116503 kvar=0.15268366742357 phases=2
new load.load_p7ulv3658 conn=wye bus1=p7ulv3658.1.2 kv=0.208 vminpu=0.8 vmaxpu=1.2 model=1 kw=2.8212368144649242 kvar=1.081112241688894 phases=2
new load.load_p7ulv3664 conn=wye bus1=p7ulv3664.1.2 kv=0.208 vminpu=0.8 vmaxpu=1.2 model=1 kw=4.581088272792004 kvar=1.2244302126107713 phases=2
new load.load_p7ulv3668 conn=wye bus1=p7ulv3668.1.2 kv=0.208 vminpu=0.8 vmaxpu=1.2 model=1 kw=6.8921683000154195 kvar=0.31125331074045437 phases=2
new load.load_p7ulv3885 conn=wye bus1=p7ulv3885.1.2 kv=0.208 vminpu=0.8 vmaxpu=1.2 model=1 kw=3.095730952629749 kvar=1.129368159246515 phases=2
new load.load_p7ulv3887 conn=wye bus1=p7ulv3887.1.2 kv=0.208 vminpu=0.8 vmaxpu=1.2 model=1 kw=14.306014780902741 kvar=2.0133506039919835 phases=2
new load.load_p7ulv3888 conn=wye bus1=p7ulv3888.1.2 kv=0.208 vminpu=0.8 vmaxpu=1.2 model=1 kw=2.0687126765616246 kvar=0.7044047395970248 phases=2
new load.load_p7ulv3895 conn=wye bus1=p7ulv3895.1.2 kv=0.208 vminpu=0.8 vmaxpu=1.2 model=1 kw=7.873470519772021 kvar=1.7121338461844338 phases=2
new load.load_p7ulv3896 conn=wye bus1=p7ulv3896.1.2 kv=0.208 vminpu=0.8 vmaxpu=1.2 model=1 kw=3.748921168259389 kvar=1.1784993401537216 phases=2
new load.load_p7ulv3904 conn=wye bus1=p7ulv3904.1.2 kv=0.208 vminpu=0.8 vmaxpu=1.2 model=1 kw=2.7686396706926923 kvar=0.8424562454152666 phases=2
new load.load_p7ulv3906 conn=wye bus1=p7ulv3906.1.2 kv=0.208 vminpu=0.8 vmaxpu=1.2 model=1 kw=1.286852178788447 kvar=0.5177912351196886 phases=2
...
